@<TRIPOS>MOLECULE
energy: -30.766746169269 gnorm: 0.000146388153 xtb: 6.6.1 (8d0f1dd)
 22 23 0 0 0
SMALL
GASTEIGER

@<TRIPOS>ATOM
1  C  3.4993  -0.6772  0.2105  C.ar  1  UNL1  -0.0617
2  C  -3.4993  0.6772  -0.2106  C.ar  1  UNL1  -0.0617
3  C  2.5868  -1.7248  0.0537  C.ar  1  UNL1  -0.0612
4  C  3.0302  0.6378  0.2842  C.ar  1  UNL1  -0.0612
5  C  -3.0386  -0.4401  0.4924  C.ar  1  UNL1  -0.0612
6  C  -2.5783  1.5271  -0.8304  C.ar  1  UNL1  -0.0612
7  C  1.2180  -1.4594  -0.0283  C.ar  1  UNL1  -0.0540
8  C  1.6613  0.9022  0.2015  C.ar  1  UNL1  -0.0540
9  C  -1.6697  -0.7047  0.5742  C.ar  1  UNL1  -0.0540
10  C  -1.2095  1.2620  -0.7474  C.ar  1  UNL1  -0.0540
11  C  0.7293  -0.1411  0.0439  C.ar  1  UNL1  -0.0179
12  C  -0.7293  0.1411  -0.0438  C.ar  1  UNL1  -0.0179
13  H  4.5704  -0.8845  0.2749  H  1  UNL1  0.0618
14  H  -4.5704  0.8845  -0.2750  H  1  UNL1  0.0618
15  H  2.9436  -2.7559  -0.0140  H  1  UNL1  0.0618
16  H  3.7344  1.4635  0.4157  H  1  UNL1  0.0618
17  H  -3.7497  -1.1061  0.9882  H  1  UNL1  0.0618
18  H  -2.9283  2.3985  -1.3900  H  1  UNL1  0.0618
19  H  0.5169  -2.2844  -0.1754  H  1  UNL1  0.0624
20  H  1.3052  1.9317  0.2851  H  1  UNL1  0.0624
21  H  -1.3209  -1.5672  1.1471  H  1  UNL1  0.0624
22  H  -0.5013  1.9198  -1.2567  H  1  UNL1  0.0624
@<TRIPOS>BOND
     1    18     6    1
     2    22    10    1
     3     6    10   ar
     4     6     2   ar
     5    10    12   ar
     6    14     2    1
     7     2     5   ar
     8    19     7    1
     9     7     3   ar
    10     7    11   ar
    11    15     3    1
    12    12    11    1
    13    12     9   ar
    14     3     1   ar
    15    11     8   ar
    16     1    13    1
    17     1     4   ar
    18     8     4   ar
    19     8    20    1
    20     4    16    1
    21     5     9   ar
    22     5    17    1
    23     9    21    1
